Caso_B7_25.rel
CEPEL - CENTRO DE PESQUISAS DE ENERGIA ELETRICA - PROGRAMA DE ANALISE DE REDES - V11.07.00                                 PAG.   1

                                                                                 
 RELATORIO DE BARRAS CA DO SISTEMA * AREA   1 *                                     

 X---------------------X-----------X---------------X---------------X---------------X---------------X---------------X---------------X---X
          BARRA            TENSAO        GERACAO     INJECAO EQUIV        CARGA          ELO CC          SHUNT           MOTOR
  NUM.      NOME     TP  MOD   ANG      MW    Mvar\     MW    Mvar      MW    Mvar      MW    Mvar    Mvar   EQUIV      MW    Mvar
                                            CE Mvar                                                 SHUNT L                         EST
 X-----X------------X--X-----X-----X-------X-------X-------X-------X-------X-------X-------X-------X-------X-------X-------X-------X---X

      1 Bar-1 Ger1    2 1.000   0.0   177.1    -3.3     0.0     0.0     0.0     0.0     0.0     0.0     0.0     0.0     0.0     0.0 LIG
      2 Bar-2 Ger2    1 1.000  -3.8   100.0    -9.5     0.0     0.0     0.0     0.0     0.0     0.0     0.0     0.0     0.0     0.0 LIG
      3 Bar-3         0 1.006  -5.1     0.0     0.0     0.0     0.0     0.0     0.0     0.0     0.0     0.0     0.0     0.0     0.0 LIG
      4 Bar-4         0 1.010  -7.9     0.0     0.0     0.0     0.0     0.0     0.0     0.0     0.0     0.0     0.0     0.0     0.0 LIG
      5 Bar-5 Car1    0 0.998  -8.8     0.0     0.0     0.0     0.0    55.0    27.0     0.0     0.0     0.0     0.0     0.0     0.0 LIG
      6 Bar-6 Car2    0 1.005  -9.8     0.0     0.0     0.0     0.0    37.0    18.0     0.0     0.0     0.0     0.0     0.0     0.0 LIG
      7 Bar-7 Car3    0 1.009 -10.2     0.0     0.0     0.0     0.0    17.0    11.2     0.0     0.0     0.0     0.0     0.0     0.0 LIG
      8 Bar-8 Car4    0 1.001 -10.3     0.0     0.0     0.0     0.0    90.0    35.0     0.0     0.0     0.0     0.0     0.0     0.0 LIG
      9 Bar-9 Car5    0 0.998 -13.0     0.0     0.0     0.0     0.0    75.0    28.0     0.0     0.0     0.0     0.0     0.0     0.0 LIG
CEPEL - CENTRO DE PESQUISAS DE ENERGIA ELETRICA - PROGRAMA DE ANALISE DE REDES - V11.07.00                                 PAG.   2

                                                                                 
 RELATORIO COMPLETO DO SISTEMA * AREA   1 *                                     

 X--------------------- D A D O S  -  B A R R A ---------------------------X------------- F L U X O S  -  C I R C U I T O S --------------X--------X--------X-----------X
  DA BARRA       TENSAO GERACAO INJ EQV  CARGA   ELO CC  SHUNT    MOTOR                                                                                              
  NUM.  KV TIPO   MOD/     MW/     MW/     MW/     MW/   Mvar/     MW/                                                                    P E R D A S       TENSAO   
       NOME       ANG     Mvar    Mvar    Mvar    Mvar   EQUIV    Mvar  PARA BARRA                     FLUXOS                           ATIVA   REATIVA  CIR. ABERTO 
                        MVA_NOM MVA_EMR MVA_EQP   FLUXO %   SHUNT L         NUM.      NOME     NC    MW     Mvar  MVA/V_d   TAP  DEFAS TIE    MW      Mvar    MOD   ANG  
 X-------------X-------X-------X-------X-------X-----------X-------X-------X-----X------------X--X-------X-------X-------X------X-----X---X--------X--------X-----X-----X

      1   14  2   1.000   177.1     0.0     0.0         0.0     0.0     0.0
  Bar-1 Ger1        0.0    -3.3     0.0     0.0         0.0     0.0     0.0                                          
                          300.0   300.0   300.0       59.0%                     3 Bar-3         1   177.1    -3.3   177.1 1.000F   0.3         0.00    16.75            
  .......................................................................................................................................................................
      2   14  1   1.000   100.0     0.0     0.0         0.0     0.0     0.0
  Bar-2 Ger2       -3.8    -9.5     0.0     0.0         0.0     0.0     0.0                                          
                          260.0   260.0   260.0       38.6%                     4 Bar-4         1   100.0    -9.5   100.5 1.000F   0.3         0.00     7.75            
  .......................................................................................................................................................................
      3  230  0   1.006     0.0     0.0     0.0         0.0     0.0     0.0
  Bar-3            -5.1     0.0     0.0     0.0         0.0     0.0     0.0                                          
                          300.0   300.0   300.0       59.0%                     1 Bar-1 Ger1    1  -177.1    20.1   177.1                      0.00    16.75            
                          200.0   220.0   200.0       35.0%                     5 Bar-5 Car1    3    69.8    -9.5    70.0                      0.82   -11.44            
                          200.0   220.0   200.0       53.6%                     8 Bar-8 Car4    1   107.3   -10.6   107.2                      1.14    -8.06            
  .......................................................................................................................................................................
      4  230  0   1.010     0.0     0.0     0.0         0.0     0.0     0.0
  Bar-4            -7.9     0.0     0.0     0.0         0.0     0.0     0.0                                          
                          260.0   260.0   260.0       38.6%                     2 Bar-2 Ger2    1  -100.0    17.3   100.5                      0.00     7.75            
                          200.0   220.0   200.0       23.8%                     6 Bar-6 Car2    1    47.7    -5.1    47.5                      0.19   -13.52            
                          200.0   220.0   200.0       26.6%                     7 Bar-7 Car3    1    52.3   -12.2    53.1                      0.24   -14.40            
  .......................................................................................................................................................................
      5  230  0   0.998     0.0     0.0    55.0         0.0     0.0     0.0
  Bar-5 Car1       -8.8     0.0     0.0    27.0         0.0     0.0     0.0                                          
                          200.0   220.0   200.0       34.6%                     3 Bar-3         3   -68.9    -2.0    69.1                      0.82   -11.44            
                          200.0   220.0   200.0       14.3%                     7 Bar-7 Car3    1    13.9   -25.0    28.7                      0.09   -30.36            
  .......................................................................................................................................................................
      6  230  0   1.005     0.0     0.0    37.0         0.0     0.0     0.0
  Bar-6 Car2       -9.8     0.0     0.0    18.0         0.0     0.0     0.0                                          
                          200.0   220.0   200.0       24.0%                     4 Bar-4         1   -47.5    -8.4    48.0                      0.19   -13.52            
                          200.0   220.0   200.0        7.1%                     8 Bar-8 Car4    1    10.5    -9.6    14.2                      0.01   -25.66            
  .......................................................................................................................................................................
      7  230  0   1.009     0.0     0.0    17.0         0.0     0.0     0.0
  Bar-7 Car3      -10.2     0.0     0.0    11.2         0.0     0.0     0.0                                          
                          200.0   220.0   200.0       25.8%                     4 Bar-4         1   -52.0    -2.2    51.6                      0.24   -14.40            
                          200.0   220.0   200.0        7.3%                     5 Bar-5 Car1    1   -13.8    -5.3    14.7                      0.09   -30.36            
                          200.0   220.0   200.0       24.3%                     9 Bar-9 Car5    1    48.9    -3.7    48.5                      0.28   -18.64            
  .......................................................................................................................................................................
      8  230  0   1.001     0.0     0.0    90.0         0.0     0.0     0.0
  Bar-8 Car4      -10.3     0.0     0.0    35.0         0.0     0.0     0.0                                          
                          200.0   220.0   200.0       53.0%                     3 Bar-3         1  -106.2     2.6   106.1                      1.14    -8.06            
                          200.0   220.0   200.0        9.6%                     6 Bar-6 Car2    1   -10.5   -16.0    19.2                      0.01   -25.66            
                          200.0   220.0   200.0       17.1%                     9 Bar-9 Car5    1    26.7   -21.5    34.2                      0.28   -34.53            
  .......................................................................................................................................................................
      9  230  0   0.998     0.0     0.0    75.0         0.0     0.0     0.0
  Bar-9 Car5      -13.0     0.0     0.0    28.0         0.0     0.0     0.0                                          
                          200.0   220.0   200.0       25.5%                     7 Bar-7 Car3    1   -48.6   -15.0    50.9                      0.28   -18.64            
                          200.0   220.0   200.0       14.8%                     8 Bar-8 Car4    1   -26.4   -13.0    29.5                      0.28   -34.53            



 TOTAIS DA AREA   1


 X--------X--------X--------X--------X--------X--------X--------X--------X
   GERACAO  INJ EQV   CARGA   ELO CC    SHUNT   EXPORT   IMPORT   PERDAS  
     MW/      MW/      MW/      MW/     Mvar/     MW/      MW/      MW/   
    Mvar     Mvar     Mvar     Mvar     EQUIV    Mvar     Mvar     Mvar   
 X--------X--------X--------X--------X--------X--------X--------X--------X

     277.1      0.0    274.0      0.0      0.0      0.0      0.0      3.1
     -12.9      0.0    119.2      0.0      0.0      0.0      0.0   -132.1
CEPEL - CENTRO DE PESQUISAS DE ENERGIA ELETRICA - PROGRAMA DE ANALISE DE REDES - V11.07.00                                 PAG.   3

                                                                                 
 RELATORIO DE DADOS DE BARRA CA

 X------------------X-------------X----------------------------X-------X-----------------------X---------------X-------X---X---X---------------------------------------X
      BARRA            BARRA              TENSAO          GRUPO  GER MW         GER Mvar             CARGA       SHUNT      BMP AG1 AG2 AG3 AG4 AG5 AG6 AG7 AG8 AG9 A10
  NUM.      NOME     TP ARE CONTR   MOD   ANG   ESPEC CNT B  L   ATUAL     MIN   ATUAL     MAX      MW    Mvar    Mvar  EST TIP GRP GRP GRP GRP GRP GRP GRP GRP GRP GRP
 X-----X------------X--X---X------X-----X------X-----X---X--X--X-------X-------X-------X-------X-------X-------X-------X---X---X---X---X---X---X---X---X---X---X---X---X

      1 Bar-1 Ger1    2   1      1 1.000    0.0 1.000 LOC  0  0   177.1   122.0    -3.3   122.0     0.0     0.0     0.0 LIG                                            
      2 Bar-2 Ger2    1   1      2 1.000   -3.8 1.000 LOC  0  0   100.0    96.0    -9.5    96.0     0.0     0.0     0.0 LIG                                            
      3 Bar-3         0   1      0 1.006   -5.1            1  0     0.0     0.0     0.0     0.0     0.0     0.0     0.0 LIG                                            
      4 Bar-4         0   1      0 1.010   -7.9            1  0     0.0     0.0     0.0     0.0     0.0     0.0     0.0 LIG                                            
      5 Bar-5 Car1    0   1      0 0.998   -8.8            1  0     0.0     0.0     0.0     0.0    55.0    27.0     0.0 LIG                                            
      6 Bar-6 Car2    0   1      0 1.005   -9.8            1  0     0.0     0.0     0.0     0.0    37.0    18.0     0.0 LIG                                            
      7 Bar-7 Car3    0   1      0 1.009  -10.2            1  0     0.0     0.0     0.0     0.0    17.0    11.2     0.0 LIG                                            
      8 Bar-8 Car4    0   1      0 1.001  -10.3            1  0     0.0     0.0     0.0     0.0    90.0    35.0     0.0 LIG                                            
      9 Bar-9 Car5    0   1      0 0.998  -13.0            1  0     0.0     0.0     0.0     0.0    75.0    28.0     0.0 LIG                                            
CEPEL - CENTRO DE PESQUISAS DE ENERGIA ELETRICA - PROGRAMA DE ANALISE DE REDES - V11.07.00                                 PAG.   4

                                                                                 
 RELATORIO DE DADOS DE CIRCUITO CA

 X--------------X-----------X-----X-----------------------X-----------------------------------X--------------------X-------------------------X---------------------------------------X
     BARRA          ESTADO   BARRA  RESIST  REATAN  SUSCEP         T A P         ANG  BARRA           (MVA)               IDENTIFICACAO       AG1 AG2 AG3 AG4 AG5 AG6 AG7 AG8 AG9 A10
   DE   PARA  NC CIR DE PARA PROP.   (%)     (%)   (Mvar)   ATUAL   MIN    MAX  DEFAS CONTR. M NORMAL EMERG. EQUIP.   DA BARRA    PARA BARRA  GRP GRP GRP GRP GRP GRP GRP GRP GRP GRP
 X-----X-----X--X---X---X---X-----X-------X-------X-------X------X------X------X-----X------X-X------X------X------X------------X------------X---X---X---X---X---X---X---X---X---X---X

      1     3  1 Lig Lig Lig     1    0.00    5.34   0.000  1.000                 0.3           300.0  300.0  300.0 Bar-1 Ger1   Bar-3                               
      2     4  1 Lig Lig Lig     2    0.00    7.68   0.000  1.000                 0.3           260.0  260.0  260.0 Bar-2 Ger2   Bar-4                               
      3     5  3 Lig Lig Lig     3    1.70    9.20  15.800                                      200.0  220.0  200.0 Bar-3        Bar-5 Car1                                          
      3     8  1 Lig Lig Lig     3    1.00    8.50  17.600                                      200.0  220.0  200.0 Bar-3        Bar-8 Car4                                          
      4     6  1 Lig Lig Lig     4    0.85    7.20  14.900                                      200.0  220.0  200.0 Bar-4        Bar-6 Car2                                          
      4     7  1 Lig Lig Lig     4    0.90    7.90  16.200                                      200.0  220.0  200.0 Bar-4        Bar-7 Car3                                          
      5     7  1 Lig Lig Lig     5    3.20   16.10  30.600                                      200.0  220.0  200.0 Bar-5 Car1   Bar-7 Car3                                          
      6     8  1 Lig Lig Lig     6    1.10    8.40  25.600                                      200.0  220.0  200.0 Bar-6 Car2   Bar-8 Car4                                          
      7     9  1 Lig Lig Lig     7    1.19   10.08  20.900                                      200.0  220.0  200.0 Bar-7 Car3   Bar-9 Car5                                          
      8     9  1 Lig Lig Lig     8    3.90   17.00  35.800                                      200.0  220.0  200.0 Bar-8 Car4   Bar-9 Car5                                          
